Version 4
SHEET 1 1100 680
WIRE 128 -464 -32 -464
WIRE 336 -464 208 -464
WIRE 992 -352 736 -352
WIRE 160 -288 160 -320
WIRE 736 -288 736 -352
WIRE -32 -272 -32 -464
WIRE -32 -272 -160 -272
WIRE 128 -272 -32 -272
WIRE 336 -256 336 -464
WIRE 336 -256 192 -256
WIRE 400 -256 336 -256
WIRE 128 -240 64 -240
WIRE -160 -224 -160 -272
WIRE 160 -192 160 -224
WIRE 736 -176 736 -208
WIRE 1024 -176 736 -176
WIRE 736 -128 736 -176
WIRE 1024 -128 1024 -176
WIRE -160 -64 -160 -144
WIRE 64 -64 64 -240
WIRE 736 16 736 -48
WIRE 1008 16 736 16
FLAG 64 -64 0
FLAG -160 -64 0
FLAG 1024 -128 0
FLAG 992 -352 Vcc+
FLAG 1008 16 Vcc-
FLAG 400 -256 Out_IU
FLAG 160 -320 Vcc+
FLAG 160 -192 Vcc-
SYMBOL OpAmps\\LT1055 160 -320 R0
SYMATTR InstName U1
SYMBOL current -160 -224 R0
WINDOW 123 0 0 Left 0
WINDOW 39 0 0 Left 0
SYMATTR InstName I1
SYMATTR Value PULSE(550u 0 0 10n 10n 5u 10u)
SYMBOL voltage 736 -304 R0
WINDOW 123 0 0 Left 0
WINDOW 39 0 0 Left 0
SYMATTR InstName V1
SYMATTR Value 9
SYMBOL voltage 736 -144 R0
WINDOW 123 0 0 Left 0
WINDOW 39 0 0 Left 0
SYMATTR InstName V2
SYMATTR Value 9
SYMBOL res 112 -448 R270
WINDOW 0 32 56 VTop 2
WINDOW 3 0 56 VBottom 2
SYMATTR InstName R1
SYMATTR Value 363
SYMATTR SpiceLine tol=1 pwr=0.1
TEXT -194 78 Left 2 !.tran 0 200u 0 200n
